
#======================================================================
# CRYSTAL DATA
#----------------------------------------------------------------------
data_VESTA_phase_1

_chemical_name_common                  'WTe2 Structure (A=W, B/C=Te)'
_cell_length_a                         3.518600
_cell_length_b                         6.302300
_cell_length_c                         15.005800
_cell_angle_alpha                      90.000000
_cell_angle_beta                       90.000000
_cell_angle_gamma                      90.000000
_cell_volume                           332.757711
_space_group_name_H-M_alt              'P 1'
_space_group_IT_number                 1

loop_
_space_group_symop_operation_xyz
   'x, y, z'

loop_
   _atom_site_label
   _atom_site_occupancy
   _atom_site_fract_x
   _atom_site_fract_y
   _atom_site_fract_z
   _atom_site_adp_type
   _atom_site_U_iso_or_equiv
   _atom_site_type_symbol
   W1         1.0     1.000000     0.000000     0.000000    Uiso  ? W
   W2         1.0     0.000000     0.000000     0.000000    Uiso  ? W
   W3         1.0     1.000000     1.000000     0.000000    Uiso  ? W
   W4         1.0     0.000000     1.000000     0.000000    Uiso  ? W
   W5         1.0     0.500000     0.644380     0.014380    Uiso  ? W
   Te1        1.0     1.000000     0.396110    -0.090100    Uiso  ? Te
   Te2        1.0     0.500000     0.248270     0.104480    Uiso  ? Te
   Te3        1.0     0.000000     0.396110    -0.090100    Uiso  ? Te
   Te4        1.0     1.000000     0.741950     0.145510    Uiso  ? Te
   Te5        1.0     0.500000     0.902430    -0.131130    Uiso  ? Te
   Te6        1.0     0.000000     0.741950     0.145510    Uiso  ? Te
